          12
FINAL HEAT OF FORMATION =      -849.5111573712  time =       0.0000000000
  C  -35.8948664799    9.2886259308   10.0544203477
  C  -36.3696092323    8.1368720916    9.4874253256
  C  -34.5363309682    9.5695703477    9.9555021126
  C  -35.4923084434    7.1597227488    8.9838424098
  C  -33.7126430908    8.6974582688    9.3044121015
  C  -34.1833404232    7.4945484254    8.7620358687
  H  -36.5854647341    9.9399336196   10.5379614226
  H  -37.4508240693    8.0646070979    9.4360164204
  H  -34.0700572906   10.5024940235   10.5000652405
  H  -35.9507481749    6.2012351180    8.7652116130
  H  -33.4383733642    6.8263742785    8.2469555967
  H  -32.6549106837    8.8726068085    9.1230185816
          12
FINAL HEAT OF FORMATION =      -849.6186221015  time =       0.5000000000
  C  -35.8957853982    9.2869896634   10.0537459865
  C  -36.3700593771    8.1377322827    9.4888032883
  C  -34.5378469418    9.5699116764    9.9532363436
  C  -35.4935328497    7.1600269297    8.9833421606
  C  -33.7128141829    8.6991655561    9.3061981371
  C  -34.1803438489    7.4919602750    8.7602761780
  H  -36.5844239646    9.9527659980   10.5560671025
  H  -37.4570141226    8.0652268806    9.4372610722
  H  -34.0678928760   10.4928328598   10.5004371181
  H  -35.9562682196    6.2078201668    8.7647969469
  H  -33.4234950650    6.8286704138    8.2499127564
  H  -32.6536219448    8.8683567714    9.1167850853
          12
FINAL HEAT OF FORMATION =      -849.6324923933  time =       1.0000000000
  C  -35.8961527926    9.2854060317   10.0532685755
  C  -36.3702249065    8.1389490246    9.4902193720
  C  -34.5385050221    9.5708776009    9.9512903641
  C  -35.4949822412    7.1603070175    8.9829394398
  C  -33.7127435301    8.7003535322    9.3081239301
  C  -34.1769969255    7.4892981790    8.7588055907
  H  -36.5841009805    9.9684044873   10.5735476109
  H  -37.4639784685    8.0639904568    9.4378030800
  H  -34.0687124483   10.4808511568   10.4987717311
  H  -35.9612946606    6.2119240843    8.7622766611
  H  -33.4117444975    6.8320728501    8.2543134155
  H  -32.6494473745    8.8646141925    9.1123884634
          12
FINAL HEAT OF FORMATION =      -849.6130509958  time =       1.5000000000
  C  -35.8966009332    9.2837436726   10.0526559149
  C  -36.3703258391    8.1397509337    9.4913891803
  C  -34.5394659000    9.5727297132    9.9495139512
  C  -35.4969484072    7.1605558162    8.9826699499
  C  -33.7124649563    8.7013588204    9.3098640073
  C  -34.1737065244    7.4865089080    8.7573996003
  H  -36.5828574915    9.9841297786   10.5912865066
  H  -37.4714918876    8.0621257280    9.4376274574
  H  -34.0741385822   10.4663118229   10.4946789161
  H  -35.9647102181    6.2151125435    8.7594535777
  H  -33.4031652307    6.8349282320    8.2605248047
  H  -32.6431875377    8.8635039344    9.1092524891
          12
FINAL HEAT OF FORMATION =      -849.6039868485  time =       2.0000000000
  C  -35.8974770277    9.2821529756   10.0525045161
  C  -36.3707416812    8.1404705828    9.4923460208
  C  -34.5401764651    9.5750471245    9.9484137864
  C  -35.4993748257    7.1607627279    8.9822278653
  C  -33.7115444515    8.7024902743    9.3108622302
  C  -34.1705210931    7.4837978597    8.7557554091
  H  -36.5804310729    9.9991354209   10.6085944203
  H  -37.4771521850    8.0572224247    9.4374195363
  H  -34.0818942394   10.4469358012   10.4894465727
  H  -35.9669953310    6.2159780401    8.7580102422
  H  -33.3970305503    6.8369080239    8.2681860899
  H  -32.6369317383    8.8631748943    9.1080806622
          12
FINAL HEAT OF FORMATION =      -849.6132084261  time =       2.5000000000
  C  -35.8986115096    9.2811739299   10.0526609616
  C  -36.3716904471    8.1408314167    9.4930626419
  C  -34.5404106286    9.5777601915    9.9479272915
  C  -35.5018416173    7.1611508136    8.9816586057
  C  -33.7102686640    8.7035056558    9.3114536950
  C  -34.1675173404    7.4810893347    8.7540133132
  H  -36.5787192569   10.0132134930   10.6228864694
  H  -37.4822432228    8.0511195380    9.4375335901
  H  -34.0907964903   10.4264697080   10.4833976850
  H  -35.9695105702    6.2140189393    8.7567233522
  H  -33.3915700993    6.8393213212    8.2756460147
  H  -32.6321455167    8.8647898151    9.1093069927
          12
FINAL HEAT OF FORMATION =      -849.6293814813  time =       3.0000000000
  C  -35.8989425683    9.2806662392   10.0532998646
  C  -36.3729904584    8.1412290909    9.4938125708
  C  -34.5403177707    9.5806973287    9.9475982514
  C  -35.5040823199    7.1614319108    8.9807037838
  C  -33.7087405452    8.7043242188    9.3120108426
  C  -34.1644489909    7.4783974636    8.7524468401
  H  -36.5754530796   10.0251578510   10.6347258576
  H  -37.4870718360    8.0455278748    9.4396128006
  H  -34.1000298000   10.4078042515   10.4772640139
  H  -35.9721711522    6.2079352299    8.7561571206
  H  -33.3869231647    6.8420162203    8.2834844365
  H  -32.6279184615    8.8671859539    9.1111782821
          12
FINAL HEAT OF FORMATION =      -849.6162010467  time =       3.5000000000
  C  -35.8992251795    9.2809458223   10.0541325582
  C  -36.3748556919    8.1410923273    9.4945413038
  C  -34.5401724278    9.5840876530    9.9472722392
  C  -35.5060686725    7.1617422783    8.9792927467
  C  -33.7071559042    8.7049934016    9.3122540901
  C  -34.1615946184    7.4763894105    8.7511972951
  H  -36.5685735169   10.0340288128   10.6432778726
  H  -37.4905721769    8.0387219929    9.4420826201
  H  -34.1086131041   10.3907416039   10.4723697946
  H  -35.9760752232    6.2000089967    8.7550710864
  H  -33.3836993791    6.8457951350    8.2897175262
  H  -32.6241698266    8.8707508915    9.1129244153
          12
FINAL HEAT OF FORMATION =      -849.6120078773  time =       4.0000000000
  C  -35.8996692827    9.2815110446   10.0550843521
  C  -36.3773144088    8.1405518335    9.4951822255
  C  -34.5402733604    9.5871731611    9.9468362106
  C  -35.5083497481    7.1620440667    8.9781158732
  C  -33.7050544885    8.7049328420    9.3120542436
  C  -34.1590914911    7.4744116371    8.7504150678
  H  -36.5602930105   10.0379248092   10.6496759869
  H  -37.4930268565    8.0316521724    9.4440639261
  H  -34.1159811803   10.3777869111   10.4683213900
  H  -35.9800035181    6.1895791316    8.7544866869
  H  -33.3829928512    6.8491445817    8.2938885638
  H  -32.6210348616    8.8755239918    9.1167457216
          12
FINAL HEAT OF FORMATION =      -849.6102434753  time =       4.5000000000
  C  -35.9003394748    9.2827484777   10.0561835076
  C  -36.3800234385    8.1397680923    9.4956111888
  C  -34.5402733604    9.5897287733    9.9462750256
  C  -35.5103522499    7.1627344453    8.9763576282
  C  -33.7022667314    8.7043403680    9.3117100636
  C  -34.1570042060    7.4726054492    8.7501849416
  H  -36.5486171331   10.0374615288   10.6536143750
  H  -37.4951908504    8.0241528839    9.4454578046
  H  -34.1216697388   10.3708215558   10.4672747194
  H  -35.9825550930    6.1806026953    8.7520673337
  H  -33.3837760878    6.8516719327    8.2985420591
  H  -32.6179321950    8.8816021500    9.1230651086
          12
FINAL HEAT OF FORMATION =      -849.5984207143  time =       5.0000000000
  C  -35.9013447630    9.2839980226   10.0574522297
  C  -36.3833784365    8.1389288381    9.4959291264
  C  -34.5404227405    9.5922914507    9.9454170990
  C  -35.5118702755    7.1637695086    8.9750303651
  C  -33.6992004006    8.7029212563    9.3110711606
  C  -34.1547554288    7.4709077637    8.7504857206
  H  -36.5343331586   10.0346283521   10.6545157027
  H  -37.4953806036    8.0155140670    9.4480941628
  H  -34.1234945993   10.3711788570   10.4701926795
  H  -35.9843274685    6.1731609383    8.7499437128
  H  -33.3857846456    6.8525066449    8.3017764426
  H  -32.6191676094    8.8890116085    9.1310801624
          12
FINAL HEAT OF FORMATION =      -849.6151124440  time =       5.5000000000
  C  -35.9021279996    9.2853767613   10.0587249892
  C  -36.3867738075    8.1373815421    9.4962511012
  C  -34.5404429270    9.5943878198    9.9449457440
  C  -35.5127221462    7.1650649779    8.9740341609
  C  -33.6962127971    8.7014183706    9.3102455323
  C  -34.1526035468    7.4695638468    8.7505967464
  H  -36.5186643895   10.0297361514   10.6542805299
  H  -37.4950939551    8.0064427540    9.4502450355
  H  -34.1225094976   10.3774134606   10.4765918031
  H  -35.9853166075    6.1661804432    8.7470842937
  H  -33.3884472462    6.8522371550    8.3034070080
  H  -32.6217030351    8.8984508206    9.1408716291
          12
FINAL HEAT OF FORMATION =      -849.6124929496  time =       6.0000000000
  C  -35.9026044013    9.2873035637   10.0599240679
  C  -36.3902862602    8.1355380091    9.4966235423
  C  -34.5407215009    9.5960764214    9.9444632864
  C  -35.5135336439    7.1659239139    8.9730924602
  C  -33.6937116885    8.6997176572    9.3088546818
  C  -34.1508029101    7.4681689589    8.7511841739
  H  -36.5035366189   10.0231583771   10.6529744627
  H  -37.4953725290    7.9983237397    9.4520729240
  H  -34.1172488931   10.3901975774   10.4854062428
  H  -35.9865802831    6.1608915775    8.7451352861
  H  -33.3913742902    6.8508165294    8.3046257685
  H  -32.6246906386    8.9087267636    9.1528089218
          12
FINAL HEAT OF FORMATION =      -849.6142488607  time =       6.5000000000
  C  -35.9032665188    9.2890920885   10.0610424005
  C  -36.3939723169    8.1333346515    9.4970444310
  C  -34.5411171565    9.5977559390    9.9435902198
  C  -35.5148296178    7.1668439141    8.9716077424
  C  -33.6911601136    8.6979271137    9.3072266398
  C  -34.1496159433    7.4673302094    8.7518684966
  H  -36.4899349484   10.0139341514   10.6512101617
  H  -37.4956470655    7.9908416097    9.4533093477
  H  -34.1085162088   10.4075811906   10.4951977094
  H  -35.9862492243    6.1574159652    8.7427280448
  H  -33.3930820689    6.8485536216    8.3047968492
  H  -32.6268950055    8.9194044180    9.1659634611
          12
FINAL HEAT OF FORMATION =      -849.6278806377  time =       7.0000000000
  C  -35.9037752188    9.2908089511   10.0622263394
  C  -36.3976260753    8.1308986444    9.4972785946
  C  -34.5412907605    9.5991205471    9.9426969667
  C  -35.5157137870    7.1677245506    8.9699918122
  C  -33.6884006177    8.6956581500    9.3057267821
  C  -34.1486550654    7.4665989531    8.7527032087
  H  -36.4777624828   10.0032181425   10.6483335840
  H  -37.4939998463    7.9839161228    9.4549161939
  H  -34.0984269911   10.4275567516   10.5055705476
  H  -35.9853610179    6.1560276379    8.7410899095
  H  -33.3943982294    6.8444653486    8.3030688839
  H  -32.6303146003    8.9312377502    9.1795207212
          12
FINAL HEAT OF FORMATION =      -849.6445753393  time =       7.5000000000
  C  -35.9037913680    9.2930506631   10.0631973105
  C  -36.4008841780    8.1282839867    9.4974461426
  C  -34.5414522525    9.6000077442    9.9416109325
  C  -35.5163476434    7.1684744794    8.9684172644
  C  -33.6862285492    8.6932276942    9.3047053447
  C  -34.1478879780    7.4668881248    8.7541051619
  H  -36.4684766882    9.9927342785   10.6464148562
  H  -37.4913069658    7.9780721281    9.4555813394
  H  -34.0882287662   10.4491997183   10.5140054809
  H  -35.9814125365    6.1565444126    8.7398565137
  H  -33.3959122176    6.8395852598    8.3000898597
  H  -32.6334838823    8.9426350538    9.1929326385
          12
FINAL HEAT OF FORMATION =      -849.6257276669  time =       8.0000000000
  C  -35.9039568974    9.2952610859   10.0639906403
  C  -36.4040009751    8.1256768989    9.4979427307
  C  -34.5411696414    9.6003862413    9.9406106909
  C  -35.5170501339    7.1691451762    8.9662532706
  C  -33.6845651808    8.6906761193    9.3035052566
  C  -34.1476659264    7.4673609938    8.7558149593
  H  -36.4616374986    9.9836786101   10.6439046637
  H  -37.4879035202    7.9740196862    9.4558720251
  H  -34.0777398556   10.4706973422   10.5214845828
  H  -35.9755786351    6.1613972496    8.7375007480
  H  -33.3981044726    6.8334475514    8.2954938960
  H  -32.6376221169    8.9535418252    9.2057621750
          12
FINAL HEAT OF FORMATION =      -849.6396219371  time =       8.5000000000
  C  -35.9037509950    9.2968154472   10.0644226317
  C  -36.4070249143    8.1233393010    9.4986260441
  C  -34.5404913747    9.6010746012    9.9396215519
  C  -35.5173933046    7.1693404807    8.9643638132
  C  -33.6832449830    8.6881083952    9.3024777633
  C  -34.1476255534    7.4679741591    8.7577114819
  H  -36.4572489513    9.9769988939   10.6441852562
  H  -37.4829214896    7.9694504697    9.4559446966
  H  -34.0676102649   10.4900309722   10.5274961255
  H  -35.9674676953    6.1682243273    8.7360190582
  H  -33.4014493773    6.8263277694    8.2890473341
  H  -32.6408438839    8.9636633413    9.2202661824
          12
FINAL HEAT OF FORMATION =      -849.6451269666  time =       9.0000000000
  C  -35.9033916752    9.2979105654   10.0642671955
  C  -36.4096370487    8.1209391250    9.4996394069
  C  -34.5394780119    9.6019789569    9.9387939050
  C  -35.5178333705    7.1698991424    8.9625853817
  C  -33.6823769631    8.6855366339    9.3008366000
  C  -34.1475851804    7.4688088713    8.7596635174
  H  -36.4562759616    9.9721500942   10.6462240937
  H  -37.4793646265    7.9646531456    9.4570933090
  H  -34.0586313052   10.5038102840   10.5308814033
  H  -35.9585129595    6.1756953547    8.7345726947
  H  -33.4052181988    6.8199321783    8.2820244472
  H  -32.6412698193    8.9742097835    9.2350467451
          12
FINAL HEAT OF FORMATION =      -849.6406076662  time =       9.5000000000
  C  -35.9024873195    9.2988785085   10.0643116058
  C  -36.4121159522    8.1183774569    9.5008526162
  C  -34.5385453951    9.6033052106    9.9379077172
  C  -35.5181038698    7.1705390548    8.9606111410
  C  -33.6819954380    8.6828669679    9.2994316189
  C  -34.1477264860    7.4698782516    8.7615307696
  H  -36.4574387045    9.9696247618   10.6495175228
  H  -37.4792031344    7.9602428978    9.4589292721
  H  -34.0518405632   10.5125924252   10.5302011179
  H  -35.9491302696    6.1846864263    8.7336471433
  H  -33.4085166745    6.8137909373    8.2756308748
  H  -32.6372466478    8.9853133733    9.2504056513
          12
FINAL HEAT OF FORMATION =      -849.6434844719  time =      10.0000000000
  C  -35.9014860686    9.2997142300   10.0638745679
  C  -36.4144091397    8.1153848068    9.5014632581
  C  -34.5376370021    9.6046970705    9.9373737840
  C  -35.5183541825    7.1713207774    8.9582069277
  C  -33.6821993218    8.6801448170    9.2984606478
  C  -34.1479889106    7.4710440226    8.7636897168
  H  -36.4610359406    9.9712194961   10.6538828556
  H  -37.4816255156    7.9563378174    9.4596519492
  H  -34.0479445668   10.5167124919   10.5264857907
  H  -35.9403531750    6.1952096539    8.7314589256
  H  -33.4129233897    6.8073998882    8.2717141872
  H  -32.6316347980    8.9965734087    9.2661844369
          12
FINAL HEAT OF FORMATION =      -849.6257898943  time =      10.5000000000
  C  -35.8998671105    9.3003016575   10.0637786820
  C  -36.4162340002    8.1125713119    9.5026996818
  C  -34.5365590425    9.6063099726    9.9370144642
  C  -35.5183057349    7.1714519897    8.9562851719
  C  -33.6823850377    8.6775458039    9.2971131982
  C  -34.1486146924    7.4722375500    8.7658668319
  H  -36.4669586627    9.9746320256   10.6593816609
  H  -37.4848795810    7.9529040921    9.4617271224
  H  -34.0481100962   10.5168961891   10.5190026514
  H  -35.9297673692    6.2040230842    8.7292777732
  H  -33.4198009336    6.8021312091    8.2682461448
  H  -32.6252861406    9.0081069712    9.2817633760
          12
FINAL HEAT OF FORMATION =      -849.6337010412  time =      11.0000000000
  C  -35.8983046746    9.3009940548   10.0629934267
  C  -36.4179861893    8.1100545588    9.5040471314
  C  -34.5357475448    9.6078976416    9.9369761098
  C  -35.5180715714    7.1719571571    8.9541988961
  C  -33.6827584881    8.6752647282    9.2958737465
  C  -34.1490951313    7.4740361681    8.7677461960
  H  -36.4761314128    9.9797220541   10.6658433628
  H  -37.4896960823    7.9490257588    9.4633127728
  H  -34.0508958346   10.5122199840   10.5086590837
  H  -35.9199970983    6.2121754063    8.7257542178
  H  -33.4280713468    6.7991547082    8.2636501811
  H  -32.6191312737    9.0185494528    9.2970475921
          12
FINAL HEAT OF FORMATION =      -849.6367628729  time =      11.5000000000
  C  -35.8964555903    9.3014633911   10.0618276558
  C  -36.4195405506    8.1075882719    9.5059769617
  C  -34.5344879066    9.6089402749    9.9371618257
  C  -35.5176395800    7.1727686548    8.9524245019
  C  -33.6827726187    8.6733419631    9.2946100710
  C  -34.1497532116    7.4754800082    8.7701312322
  H  -36.4875246791    9.9859970308   10.6730832546
  H  -37.4978473951    7.9442829383    9.4648186864
  H  -34.0550865540   10.5043755062   10.4959698435
  H  -35.9114420554    6.2169646558    8.7213858571
  H  -33.4373773279    6.7965092660    8.2592106629
  H  -32.6135396104    9.0251524603    9.3107986427
          12
FINAL HEAT OF FORMATION =      -849.6408949750  time =      12.0000000000
  C  -35.8943925290    9.3017520582   10.0605841668
  C  -36.4206952189    8.1053137569    9.5078260461
  C  -34.5330264032    9.6100575982    9.9371537511
  C  -35.5171712530    7.1740792640    8.9510033715
  C  -33.6825283619    8.6720984741    9.2936592864
  C  -34.1505485601    7.4771181435    8.7723386271
  H  -36.5001493225    9.9917209157   10.6809519563
  H  -37.5070322572    7.9403642320    9.4650962509
  H  -34.0609164182   10.4943054657   10.4798266914
  H  -35.9025640282    6.2184958026    8.7151906171
  H  -33.4486656244    6.7932466214    8.2551703329
  H  -32.6094356929    9.0301102671    9.3232194023
          12
FINAL HEAT OF FORMATION =      -849.6447980065  time =      12.5000000000
  C  -35.8919782224    9.3020730237   10.0589954884
  C  -36.4213290754    8.1030786056    9.5097578951
  C  -34.5315447134    9.6104421512    9.9370942009
  C  -35.5166423664    7.1759470208    8.9495842599
  C  -33.6820963706    8.6709478430    9.2928528353
  C  -34.1513762070    7.4785988240    8.7749537894
  H  -36.5123056388    9.9971319097   10.6869200980
  H  -37.5151754953    7.9360094971    9.4650225702
  H  -34.0690919547   10.4821441027   10.4625944771
  H  -35.8937021503    6.2168157803    8.7067556839
  H  -33.4595178922    6.7910498244    8.2514691363
  H  -32.6076128511    9.0324307065    9.3350345667
          12
FINAL HEAT OF FORMATION =      -849.6396012740  time =      13.0000000000
  C  -35.8897092586    9.3023304017   10.0581022354
  C  -36.4216036119    8.1011669431    9.5114616365
  C  -34.5305596117    9.6103826010    9.9367106572
  C  -35.5162870839    7.1779621392    8.9479441059
  C  -33.6822255643    8.6702675577    9.2924652543
  C  -34.1526035468    7.4801915396    8.7777425558
  H  -36.5248132005   10.0003930404   10.6924693696
  H  -37.5200929292    7.9324041864    9.4645158887
  H  -34.0787774422   10.4695113847   10.4442449394
  H  -35.8852399653    6.2117827787    8.6961133558
  H  -33.4721041812    6.7902751671    8.2475448787
  H  -32.6062159446    9.0326386275    9.3454407126
          12
FINAL HEAT OF FORMATION =      -849.6583328014  time =      13.5000000000
  C  -35.8873716608    9.3027775329   10.0572816537
  C  -36.4215309405    8.0997190656    9.5133198048
  C  -34.5293120854    9.6098607797    9.9362655446
  C  -35.5161296291    7.1803799784    8.9467470459
  C  -33.6823951309    8.6705128238    9.2926206904
  C  -34.1533141119    7.4813325821    8.7803728581
  H  -36.5368241739   10.0000983174   10.6961019321
  H  -37.5214777238    7.9305490462    9.4657694710
  H  -34.0899002093   10.4567898461   10.4251293237
  H  -35.8789014012    6.2036461012    8.6844667488
  H  -33.4847873654    6.7903210914    8.2441020694
  H  -32.6054387639    9.0308278976    9.3543096558
          12
FINAL HEAT OF FORMATION =      -849.6880382135  time =      14.0000000000
  C  -35.8852763010    9.3031126290   10.0565539300
  C  -36.4213896349    8.0984276337    9.5146490865
  C  -34.5287468631    9.6086122441    9.9355418583
  C  -35.5159802489    7.1827872197    8.9456024708
  C  -33.6820822400    8.6714101141    9.2932717054
  C  -34.1542063557    7.4824307283    8.7826993533
  H  -36.5467196012    9.9968674665   10.6953964135
  H  -37.5201534887    7.9280529842    9.4691789726
  H  -34.0989881761   10.4470427897   10.4074196985
  H  -35.8727122172    6.1928841680    8.6727827968
  H  -33.4983587561    6.7913198190    8.2410508784
  H  -32.6068457637    9.0245842100    9.3605604086
          12
FINAL HEAT OF FORMATION =      -849.7031749773  time =      14.5000000000
  C  -35.8834151048    9.3036899632   10.0559311762
  C  -36.4214623063    8.0973476554    9.5159228552
  C  -34.5283108345    9.6066925070    9.9344760105
  C  -35.5158147195    7.1854811095    8.9446910499
  C  -33.6818379833    8.6723185071    9.2939095991
  C  -34.1554579193    7.4833128787    8.7852256951
  H  -36.5556339640    9.9908639984   10.6922281408
  H  -37.5174000487    7.9271773943    9.4735665105
  H  -34.1071273770   10.4411715433   10.3931286587
  H  -35.8681056556    6.1820495634    8.6607173198
  H  -33.5121582544    6.7936412676    8.2388858752
  H  -32.6120276408    9.0172585255    9.3655626258
          12
FINAL HEAT OF FORMATION =      -849.6756540540  time =      15.0000000000
  C  -35.8815337221    9.3042561948   10.0554255041
  C  -36.4213008142    8.0969863168    9.5168585000
  C  -34.5282825734    9.6040066918    9.9330246005
  C  -35.5152333480    7.1884687130    8.9438442258
  C  -33.6809840939    8.6732945248    9.2948805702
  C  -34.1566448861    7.4843570260    8.7878691186
  H  -36.5620855726    9.9807737713   10.6893081621
  H  -37.5149857421    7.9259076628    9.4777552114
  H  -34.1137445149   10.4404862113   10.3793988039
  H  -35.8634021987    6.1717221448    8.6481158909
  H  -33.5242641045    6.7957078616    8.2376751893
  H  -32.6185741260    9.0073519957    9.3687177773
          12
FINAL HEAT OF FORMATION =      -849.6850427256  time =      15.5000000000
  C  -35.8800035846    9.3046044121   10.0550248019
  C  -36.4206508086    8.0969974194    9.5178587416
  C  -34.5289487282    9.6009716500    9.9311734975
  C  -35.5144501115    7.1911651261    8.9429550100
  C  -33.6798697985    8.6747439163    9.2956961052
  C  -34.1579893077    7.4853744261    8.7904156468
  H  -36.5671523866    9.9677827428   10.6858290171
  H  -37.5115419235    7.9255478383    9.4840281694
  H  -34.1188395901   10.4448222736   10.3669830909
  H  -35.8588279356    6.1637075957    8.6372535298
  H  -33.5344582921    6.7982331940    8.2366037903
  H  -32.6258776054    8.9949716091    9.3700571523
          12
FINAL HEAT OF FORMATION =      -849.6956690148  time =      16.0000000000
  C  -35.8790507813    9.3051040282   10.0553609073
  C  -36.4201824816    8.0974667558    9.5187489666
  C  -34.5297844497    9.5972472389    9.9287783681
  C  -35.5143895519    7.1935612648    8.9417518940
  C  -33.6786888877    8.6764224246    9.2970859464
  C  -34.1595275197    7.4864756002    8.7927885711
  H  -36.5709716743    9.9533544347   10.6816332510
  H  -37.5071089659    7.9252102189    9.4913477979
  H  -34.1211489268   10.4542110194   10.3585945866
  H  -35.8550247971    6.1574770294    8.6273268135
  H  -33.5453145972    6.8006439680    8.2366653591
  H  -32.6322888409    8.9821531752    9.3702650733
          12
FINAL HEAT OF FORMATION =      -849.7358959432  time =      16.5000000000
  C  -35.8784734471    9.3052685483   10.0560684445
  C  -36.4192660140    8.0984099705    9.5193808044
  C  -34.5302245157    9.5935137439    9.9259845551
  C  -35.5145066337    7.1951050282    8.9405548339
  C  -33.6774635665    8.6783916186    9.2990288980
  C  -34.1611101421    7.4878659461    8.7951625047
  H  -36.5738664199    9.9397053260   10.6748960032
  H  -37.5031322234    7.9242402571    9.5003186830
  H  -34.1221865134   10.4689179013   10.3523155727
  H  -35.8512862554    6.1531591349    8.6192946011
  H  -33.5546044291    6.8012626845    8.2368288699
  H  -32.6352764444    8.9696900239    9.3689509315
          12
FINAL HEAT OF FORMATION =      -849.7236254333  time =      17.0000000000
  C  -35.8786187900    9.3048113238   10.0565509021
  C  -36.4177035782    8.0995116493    9.5200156701
  C  -34.5304425300    9.5890989542    9.9230494365
  C  -35.5149022893    7.1956934649    8.9391024145
  C  -33.6762927490    8.6804980810    9.3015199134
  C  -34.1625797201    7.4895732202    8.7966320826
  H  -36.5749847525    9.9272734637   10.6663197645
  H  -37.4988244222    7.9230245245    9.5108570505
  H  -34.1232039136   10.4857564787   10.3479219788
  H  -35.8464011200    6.1526050152    8.6135172220
  H  -33.5624267017    6.8005586800    8.2359512613
  H  -32.6335060875    8.9569735319    9.3648904150
          12
FINAL HEAT OF FORMATION =      -849.7435056844  time =      17.5000000000
  C  -35.8790669305    9.3044156682   10.0567325807
  C  -36.4156728152    8.1010972996    9.5204516988
  C  -34.5307251411    9.5846175489    9.9204635446
  C  -35.5155724814    7.1957923788    8.9376863309
  C  -33.6756124636    8.6830415812    9.3044691625
  C  -34.1639968131    7.4915126391    8.7980501849
  H  -36.5749363049    9.9140936913   10.6573256649
  H  -37.4944762479    7.9212677935    9.5223482214
  H  -34.1251014455   10.5040222423   10.3437191474
  H  -35.8423315196    6.1543531669    8.6103156415
  H  -33.5683776849    6.7973752673    8.2348435266
  H  -32.6284473481    8.9430115322    9.3598145171
          12
FINAL HEAT OF FORMATION =      -849.7086289382  time =      18.0000000000
  C  -35.8792687956    9.3034709396   10.0570979565
  C  -36.4133311801    8.1022736685    9.5207494498
  C  -34.5312499904    9.5797142456    9.9179906971
  C  -35.5166706276    7.1955859718    8.9364559631
  C  -33.6751602857    8.6857142751    9.3073467495
  C  -34.1656965172    7.4933874612    8.7995934436
  H  -36.5747667382    9.9018394704   10.6484859921
  H  -37.4893932847    7.9204966688    9.5337717674
  H  -34.1263853075   10.5239554117   10.3382496125
  H  -35.8373494889    6.1591020434    8.6075763321
  H  -33.5708565883    6.7939117669    8.2322798398
  H  -32.6197207198    8.9284479745    9.3547275166
          12
FINAL HEAT OF FORMATION =      -849.7399717309  time =      18.5000000000
  C  -35.8794423996    9.3030924425   10.0573210174
  C  -36.4109532092    8.1035883150    9.5206010789
  C  -34.5318192499    9.5750168448    9.9157540318
  C  -35.5185641222    7.1948224170    8.9348238837
  C  -33.6749200663    8.6885979181    9.3100729377
  C  -34.1676344222    7.4957568529    8.8011891872
  H  -36.5734303913    9.8919692763   10.6397634012
  H  -37.4819848355    7.9192052368    9.5451357633
  H  -34.1281496085   10.5422504457   10.3317869013
  H  -35.8329044194    6.1663116555    8.6057010053
  H  -33.5708646629    6.7890806303    8.2297232183
  H  -32.6090763730    8.9144072475    9.3491489745
          12
FINAL HEAT OF FORMATION =      -849.7518712835  time =      19.0000000000
  C  -35.8795594814    9.3025514440   10.0577550274
  C  -36.4083652986    8.1047878983    9.5202589176
  C  -34.5322350921    9.5707756590    9.9137071197
  C  -35.5206150716    7.1934133986    8.9331907951
  C  -33.6748191337    8.6911293065    9.3126618576
  C  -34.1697620803    7.4979581918    8.8031492974
  H  -36.5714763371    9.8851522919   10.6337256160
  H  -37.4761630460    7.9166718298    9.5565471974
  H  -34.1316822478   10.5585944536   10.3249406464
  H  -35.8311522303    6.1762247459    8.6053800398
  H  -33.5690498957    6.7833850065    8.2261577760
  H  -32.5977254984    8.9007490548    9.3444011073
          12
FINAL HEAT OF FORMATION =      -849.7410076269  time =      19.5000000000
  C  -35.8801287410    9.3012211530   10.0580285546
  C  -36.4055230380    8.1058598020    9.5199096910
  C  -34.5326105611    9.5671562177    9.9116763567
  C  -35.5226458345    7.1923354390    8.9314880630
  C  -33.6745587277    8.6934679137    9.3152225164
  C  -34.1720068202    7.5005143086    8.8052820021
  H  -36.5706325410    9.8819719072   10.6299325708
  H  -37.4727797869    7.9141121804    9.5680514895
  H  -34.1365391221   10.5710555862   10.3152652521
  H  -35.8301792405    6.1866152473    8.6045867099
  H  -33.5652528131    6.7777277371    8.2240472764
  H  -32.5862736913    8.8870696662    9.3391001298
          12
FINAL HEAT OF FORMATION =      -849.7360134009  time =      20.0000000000
  C  -35.8812712974    9.2993993205   10.0581385711
  C  -36.4021236297    8.1075044979    9.5197421429
  C  -34.5330829255    9.5641282412    9.9094154676
  C  -35.5242567180    7.1913846544    8.9297530324
  C  -33.6739289086    8.6954249958    9.3174945081
  C  -34.1740295086    7.5031360316    8.8072723920
  H  -36.5702611092    9.8812048198   10.6284498716
  H  -37.4690775810    7.9126466397    9.5798202248
  H  -34.1423689862   10.5802788027   10.3036499343
  H  -35.8307242763    6.1970637849    8.6034492001
  H  -33.5605332071    6.7720149547    8.2238509626
  H  -32.5746180004    8.8731177598    9.3331319881
