          12
FINAL HEAT OF FORMATION =      -849.8892642413  time =       0.0000000000
  C  -35.8882673094    9.3138002401   10.0641723885
  C  -36.4046645465    8.1162169477    9.5319969917
  C  -34.5158994498    9.6052482690    9.9391097853
  C  -35.5416378559    7.1901584111    8.9141795884
  C  -33.6507580112    8.6735294333    9.3328709045
  C  -34.1679709530    7.4786445745    8.7955487134
  H  -36.5554590681   10.0200641785   10.5752472008
  H  -37.4797007297    7.9042704731    9.5995808517
  H  -34.1208232907   10.5578374298   10.3152095585
  H  -35.9400011374    6.2446522732    8.5233357994
  H  -33.5006146710    6.7714780771    8.2859132757
  H  -32.5736799319    8.8781484517    9.2797019828
