          12
FINAL HEAT OF FORMATION =      -849.5111573712  time =       0.0000000000
  C  -35.8948664799    9.2886259308   10.0544203477
  C  -36.3696092323    8.1368720916    9.4874253256
  C  -34.5363309682    9.5695703477    9.9555021126
  C  -35.4923084434    7.1597227488    8.9838424098
  C  -33.7126430908    8.6974582688    9.3044121015
  C  -34.1833404232    7.4945484254    8.7620358687
  H  -36.5854647341    9.9399336196   10.5379614226
  H  -37.4508240693    8.0646070979    9.4360164204
  H  -34.0700572906   10.5024940235   10.5000652405
  H  -35.9507481749    6.2012351180    8.7652116130
  H  -33.4383733642    6.8263742785    8.2469555967
  H  -32.6549106837    8.8726068085    9.1230185816
          12
FINAL HEAT OF FORMATION =      -849.5402474258  time =       0.5000000000
  C  -35.8952043781    9.2863796214   10.0524344931
  C  -36.3691764001    8.1379960645    9.4896354373
  C  -34.5383725868    9.5693853851    9.9540350670
  C  -35.4941693675    7.1600542820    8.9831272516
  C  -33.7121643080    8.6998919155    9.3059390150
  C  -34.1796133468    7.4908942437    8.7599156525
  H  -36.5859431451    9.9488924459   10.5568751873
  H  -37.4577970191    8.0735557303    9.4383992465
  H  -34.0761405635   10.4963279436   10.4996969940
  H  -35.9642075623    6.2099826483    8.7669098843
  H  -33.4251316340    6.8261073990    8.2486161359
  H  -32.6538769429    8.8750071785    9.1209550068
          12
FINAL HEAT OF FORMATION =      -849.5665980992  time =       1.0000000000
  C  -35.8950334721    9.2842541405   10.0506933795
  C  -36.3684718068    8.1394005924    9.4919786222
  C  -34.5395198311    9.5698324317    9.9528768326
  C  -35.4962208746    7.1603808795    8.9824852654
  C  -33.7115075680    8.7018255228    9.3074776110
  C  -34.1755684854    7.4871995462    8.7581366954
  H  -36.5871145026    9.9609939535   10.5748938021
  H  -37.4654274443    8.0799781138    9.4404231700
  H  -34.0846850600   10.4875253289   10.4975443464
  H  -35.9767409851    6.2162409344    8.7661657232
  H  -33.4148847970    6.8269797807    8.2519981984
  H  -32.6500199675    8.8777144904    9.1200825412
          12
FINAL HEAT OF FORMATION =      -849.5461035413  time =       1.5000000000
  C  -35.8950425555    9.2821941641   10.0489320989
  C  -36.3678140504    8.1403168433    9.4940274526
  C  -34.5408967085    9.5711906813    9.9518541367
  C  -35.4987121449    7.1607040507    8.9819230086
  C  -33.7107542736    8.7035031320    9.3087994686
  C  -34.1716618692    7.4834781420    8.7565473501
  H  -36.5872183054    9.9738428287   10.5927622014
  H  -37.4733215722    8.0845133558    9.4418318223
  H  -34.0966256342   10.4755630835   10.4933631716
  H  -35.9866060885    6.2215384615    8.7645562760
  H  -33.4074993827    6.8275061984    8.2576399928
  H  -32.6440296963    8.8822776548    9.1196090411
          12
FINAL HEAT OF FORMATION =      -849.5434994139  time =       2.0000000000
  C  -35.8954899439    9.2802222914   10.0476983220
  C  -36.3675228863    8.1411390282    9.4958053569
  C  -34.5420136193    9.5730366633    9.9514626617
  C  -35.5016466512    7.1609636462    8.9812100219
  C  -33.7093798967    8.7052769202    9.3094157477
  C  -34.1678942567    7.4798794487    8.7547136192
  H  -36.5860395337    9.9860311829   10.6102723754
  H  -37.4792193435    8.0858180621    9.4430514056
  H  -34.1106045963   10.4587704345   10.4879892025
  H  -35.9950505602    6.2245402017    8.7643890388
  H  -33.4024945153    6.8272797666    8.2646608251
  H  -32.6379288649    8.8873829321    9.1210542383
          12
FINAL HEAT OF FORMATION =      -849.5604570801  time =       2.5000000000
  C  -35.8962748971    9.2789910387   10.0468534030
  C  -36.3678539102    8.1415305103    9.4973162271
  C  -34.5425897545    9.5752842725    9.9516704623
  C  -35.5045693799    7.1614271493    8.9803127171
  C  -33.7077407338    8.7068870382    9.3095903957
  C  -34.1643724272    7.4763496806    8.7528943700
  H  -36.5854607071    9.9978484206   10.6243980649
  H  -37.4842515620    8.0849167225    9.4447027583
  H  -34.1247641761   10.4404672479   10.4821587834
  H  -36.0029022098    6.2247928397    8.7639069883
  H  -33.3978896445    6.8276108849    8.2718628490
  H  -32.6332290148    8.8938427016    9.1241587005
          12
FINAL HEAT OF FORMATION =      -849.5709048603  time =       3.0000000000
  C  -35.8963509783    9.2783698866   10.0466288986
  C  -36.3686641181    8.1418839931    9.4987877674
  C  -34.5427561740    9.5777853672    9.9519839966
  C  -35.5071861032    7.1617970341    8.9789940248
  C  -33.7059593598    8.7082254324    9.3097207875
  C  -34.1608781950    7.4729468537    8.7513624917
  H  -36.5831454681   10.0081963026   10.6357419499
  H  -37.4887372711    8.0832735267    9.4483170418
  H  -34.1380561847   10.4234985344   10.4765646597
  H  -36.0098103043    6.2208869248    8.7636634475
  H  -33.3937753361    6.8284580555    8.2798060677
  H  -32.6290098812    8.9002453845    9.1270914403
          12
FINAL HEAT OF FORMATION =      -849.5594669195  time =       3.5000000000
  C  -35.8963955864    9.2785946382   10.0465786153
  C  -36.3700479188    8.1416572582    9.5002791759
  C  -34.5428529923    9.5807025413    9.9523394206
  C  -35.5095531283    7.1622111715    8.9771642299
  C  -33.7041448170    8.7094368666    9.3094906410
  C  -34.1576002156    7.4702064243    8.7502052057
  H  -36.5772272316   10.0156511484   10.6435913328
  H  -37.4917453109    8.0801994999    9.4524705956
  H  -34.1505866482   10.4081569208   10.4724007734
  H  -36.0178817760    6.2153292767    8.7626937218
  H  -33.3909741128    6.8303106077    8.2863171875
  H  -32.6252461698    8.9078064251    9.1296068955
          12
FINAL HEAT OF FORMATION =      -849.5618923226  time =       4.0000000000
  C  -35.8967334734    9.2793320876   10.0466938449
  C  -36.3721145245    8.1408945487    9.5017364899
  C  -34.5430941200    9.5832729514    9.9526491875
  C  -35.5121521532    7.1627002302    8.9754074333
  C  -33.7019511517    8.7098917464    9.3086829131
  C  -34.1547429181    7.4675469031    8.7497434579
  H  -36.5698513316   10.0191166486   10.6484572012
  H  -37.4933868824    8.0752443215    9.4566126187
  H  -34.1606317360   10.3962150918   10.4698556644
  H  -36.0248894203    6.2073743465    8.7611785794
  H  -33.3902526967    6.8317541213    8.2916037996
  H  -32.6221647703    8.9158547682    9.1328330369
          12
FINAL HEAT OF FORMATION =      -849.5632497532  time =       4.5000000000
  C  -35.8973531433    9.2807982327   10.0471630281
  C  -36.3745678120    8.1398629151    9.5028184251
  C  -34.5431462799    9.5853894526    9.9526955419
  C  -35.5143961323    7.1635506680    8.9731355747
  C  -33.6991343705    8.7097149793    9.3078278197
  C  -34.1524016749    7.4652134754    8.7498436533
  H  -36.5588097770   10.0186536619   10.6509796537
  H  -37.4947122752    8.0689073411    9.4597523129
  H  -34.1681720620   10.3901236357   10.4701367585
  H  -36.0295165308    6.2004939037    8.7577229476
  H  -33.3908212406    6.8327823916    8.2973183047
  H  -32.6190638690    8.9242497314    9.1382294911
          12
FINAL HEAT OF FORMATION =      -849.5536532465  time =       5.0000000000
  C  -35.8983996314    9.2823977832   10.0479512160
  C  -36.3777835883    8.1387104763    9.5037055152
  C  -34.5432412362    9.5875500463    9.9523841085
  C  -35.5160784451    7.1647654114    8.9712796209
  C  -33.6961293725    8.7086380264    9.3066853209
  C  -34.1499874613    7.4631121826    8.7505674045
  H  -36.5449702730   10.0164864758   10.6502327925
  H  -37.4940241634    8.0601613569    9.4640502810
  H  -34.1709045283   10.3909259291   10.4745304752
  H  -36.0322968551    6.1948211820    8.7540752487
  H  -33.3923332765    6.8324023392    8.3019176448
  H  -32.6203640329    8.9330574107    9.1445819359
          12
FINAL HEAT OF FORMATION =      -849.5708117166  time =       5.5000000000
  C  -35.8993409986    9.2842948960   10.0488917690
  C  -36.3811605882    8.1367673866    9.5045300062
  C  -34.5430810582    9.5892781182    9.9524229430
  C  -35.5170109161    7.1662891287    8.9697018085
  C  -33.6933205025    8.7073937787    9.3053320604
  C  -34.1477670552    7.4614949580    8.7512443914
  H  -36.5295739413   10.0131372830   10.6479307678
  H  -37.4928282850    8.0493797070    9.4679075512
  H  -34.1696262132   10.3968987580   10.4827129707
  H  -36.0330269015    6.1892339022    8.7489454926
  H  -33.3941539936    6.8312028774    8.3054336663
  H  -32.6231048999    8.9428377283    9.1516978256
          12
FINAL HEAT OF FORMATION =      -849.5645954307  time =       6.0000000000
  C  -35.9000848917    9.2868777072   10.0499158647
  C  -36.3847688600    8.1344640416    9.5053205766
  C  -34.5430586571    9.5906554326    9.9523958144
  C  -35.5178138771    7.1674139703    8.9681530335
  C  -33.6910950759    8.7058614508    9.3034109753
  C  -34.1459934942    7.4599633746    8.7525129516
  H  -36.5145469063   10.0088902445   10.6442714819
  H  -37.4922672357    8.0380761782    9.4713841868
  H  -34.1629433165   10.4087258647   10.4934602159
  H  -36.0328223184    6.1848668391    8.7440925903
  H  -33.3959623733    6.8291855339    8.3089604901
  H  -32.6264647869    8.9524127611    9.1601007417
          12
FINAL HEAT OF FORMATION =      -849.5704838644  time =       6.5000000000
  C  -35.9010771226    9.2894556282   10.0507325476
  C  -36.3884941568    8.1317147746    9.5063318103
  C  -34.5431155069    9.5919465528    9.9521493903
  C  -35.5191128050    7.1687060177    8.9658856537
  C  -33.6888556952    8.7043039604    9.3010725718
  C  -34.1447983422    7.4589122007    8.7540496297
  H  -36.5012465795   10.0025009068   10.6394915515
  H  -37.4918252013    8.0268028830    9.4749046216
  H  -34.1526535925   10.4245834545   10.5057050103
  H  -36.0309734271    6.1823288228    8.7379467613
  H  -33.3964215690    6.8260878034    8.3121605502
  H  -32.6293809759    8.9624900856    9.1689309320
          12
FINAL HEAT OF FORMATION =      -849.5907601946  time =       7.0000000000
  C  -35.9019579025    9.2920072013   10.0516781497
  C  -36.3922193892    8.1287153433    9.5071234544
  C  -34.5429018036    9.5929657704    9.9518658489
  C  -35.5199607498    7.1699834769    8.9634822808
  C  -33.6864333446    8.7022273605    9.2988639815
  C  -34.1438610680    7.4580309982    8.7557776086
  H  -36.4893442304    9.9949665222   10.6335543318
  H  -37.4897343197    8.0154566093    9.4787242966
  H  -34.1405413180   10.4425955298   10.5184572950
  H  -36.0280932524    6.1814451664    8.7322700478
  H  -33.3964430430    6.8213657657    8.3136545015
  H  -32.6337371282    8.9732620282    9.1778484435
          12
FINAL HEAT OF FORMATION =      -849.6147059509  time =       7.5000000000
  C  -35.9023507713    9.2950897494   10.0523780561
  C  -36.3955187690    8.1255370748    9.5078844970
  C  -34.5426686078    9.5935185086    9.9514275678
  C  -35.5205530894    7.1711603546    8.9610960676
  C  -33.6845847394    8.6999956769    9.2971042246
  C  -34.1430987490    7.4581603699    8.7581004380
  H  -36.4804222078    9.9877820366   10.6285384013
  H  -37.4869212623    8.0050832136    9.4816584212
  H  -34.1282984518   10.4620125282   10.5291985125
  H  -36.0221954622    6.1821724431    8.7268099039
  H  -33.3967263117    6.8158824530    8.3140568143
  H  -32.6380909334    8.9835955989    9.1865290168
          12
FINAL HEAT OF FORMATION =      -849.5945873981  time =       8.0000000000
  C  -35.9029183472    9.2981097734   10.0531235940
  C  -36.3987878262    8.1224073801    9.5087737062
  C  -34.5419488210    9.5937032997    9.9508964307
  C  -35.5211373770    7.1722156891    8.9582577662
  C  -33.6832651855    8.6975089627    9.2953132801
  C  -34.1429726947    7.4586516671    8.7606602916
  H  -36.4737335741    9.9822387707   10.6233814578
  H  -37.4837441657    7.9958679284    9.4835917264
  H  -34.1149378543   10.4809700457   10.5384587733
  H  -36.0135924575    6.1864568328    8.7204086695
  H  -33.3977132852    6.8097104468    8.3125868252
  H  -32.6434927302    8.9925403672    9.1947081626
          12
FINAL HEAT OF FORMATION =      -849.6109521260  time =       8.5000000000
  C  -35.9031557838    9.3005477664   10.0533883575
  C  -36.4018965481    8.1195089683    9.5099973154
  C  -34.5408319336    9.5941480872    9.9505177145
  C  -35.5213659943    7.1728758719    8.9555582003
  C  -33.6823130986    8.6950474741    9.2935515534
  C  -34.1429814200    7.4592197523    8.7635324839
  H  -36.4697266643    9.9794023165   10.6205013401
  H  -37.4791424692    7.9858146861    9.4858172782
  H  -34.1016858614   10.4972528092   10.5466534766
  H  -36.0028098102    6.1926630335    8.7142761161
  H  -33.3998125079    6.8023852034    8.3098318148
  H  -32.6482278947    9.0009125433    9.2040126760
          12
FINAL HEAT OF FORMATION =      -849.6155723625  time =       9.0000000000
  C  -35.9032982328    9.3025215534   10.0533420944
  C  -36.4047495621    8.1165856865    9.5113113892
  C  -34.5393212075    9.5949684212    9.9500908993
  C  -35.5215777048    7.1738521887    8.9531102354
  C  -33.6818745387    8.6924037398    9.2913360298
  C  -34.1431112445    7.4602344793    8.7664175226
  H  -36.4688579713    9.9787792785   10.6196985513
  H  -37.4761524211    7.9745597973    9.4884778154
  H  -34.0882935198   10.5075327393   10.5517919610
  H  -35.9900163981    6.1987310865    8.7082506704
  H  -33.4022605763    6.7964421985    8.3063157770
  H  -32.6500954600    9.0085787777    9.2134542870
          12
FINAL HEAT OF FORMATION =      -849.6174788393  time =       9.5000000000
  C  -35.9029350618    9.3043965206   10.0535553212
  C  -36.4075123931    8.1135016433    9.5128011824
  C  -34.5378832702    9.5962511537    9.9495825373
  C  -35.5215755218    7.1749225112    8.9504591556
  C  -33.6819695529    8.6896013902    9.2893518274
  C  -34.1434574339    7.4615483816    8.7692621045
  H  -36.4700987698    9.9807879891   10.6199742524
  H  -37.4765997830    7.9631569788    9.4918424420
  H  -34.0763744814   10.5124136751   10.5528915872
  H  -35.9763481341    6.2060469431    8.7024911476
  H  -33.4041744613    6.7909270820    8.3036020224
  H  -32.6474579253    9.0164908369    9.2231338034
          12
FINAL HEAT OF FORMATION =      -849.6208496762  time =      10.0000000000
  C  -35.9024617405    9.3060436094   10.0534456504
  C  -36.4101684371    8.1100625033    9.5135277508
  C  -34.5364792863    9.5977113021    9.9492670611
  C  -35.5215039056    7.1760612146    8.9475259894
  C  -33.6826536025    8.6866382283    9.2879494454
  C  -34.1439809039    7.4630854374    8.7722941620
  H  -36.4735822654    9.9867876074   10.6217497712
  H  -37.4797109295    7.9522794063    9.4935451537
  H  -34.0669707694   10.5126981710   10.5503800063
  H  -35.9629522510    6.2144617409    8.6959028056
  H  -33.4072824385    6.7855519291    8.3028971189
  H  -32.6429483290    9.0241861713    9.2336231407
          12
FINAL HEAT OF FORMATION =      -849.6158697725  time =      10.5000000000
  C  -35.9014029183    9.3074291864   10.0537626281
  C  -36.4124103819    8.1068246235    9.5148234529
  C  -34.5348987281    9.5994412559    9.9490691908
  C  -35.5210941981    7.1765261449    8.9451079605
  C  -33.6833755559    8.6837297379    9.2862020558
  C  -34.1449010876    7.4647299212    8.7753417358
  H  -36.4793029872    9.9947308312   10.6246112178
  H  -37.4834714509    7.9415675953    9.4965006253
  H  -34.0610443420   10.5088546299   10.5440168492
  H  -35.9473667480    6.2210600489    8.6892939860
  H  -33.4127941292    6.7814810609    8.3025828996
  H  -32.6374148382    9.0319168118    9.2438077785
          12
FINAL HEAT OF FORMATION =      -849.6343891396  time =      11.0000000000
  C  -35.9003501947    9.3088140513   10.0533636119
  C  -36.4145647875    8.1039458273    9.5162338905
  C  -34.5336459399    9.6011547988    9.9491776704
  C  -35.5205225328    7.1773156807    8.9425790329
  C  -33.6842553067    8.6811399078    9.2846013289
  C  -34.1456479820    7.4669597101    8.7780130238
  H  -36.4882504953   10.0039418202   10.6286140594
  H  -37.4886597610    7.9311256149    9.4988691596
  H  -34.0581464811   10.5004755788   10.5344863450
  H  -35.9330253045    6.2271884447    8.6817180462
  H  -33.4198505073    6.7796392846    8.3007656989
  H  -32.6316888225    9.0390244653    9.2542294056
          12
FINAL HEAT OF FORMATION =      -849.6407848043  time =      11.5000000000
  C  -35.8989593468    9.3098413444   10.0526278862
  C  -36.4165386134    8.1012024820    9.5181483667
  C  -34.5319995872    9.6023693198    9.9494231027
  C  -35.5197689779    7.1783225351    8.9404760732
  C  -33.6847510808    8.6788728070    9.2830831973
  C  -34.1465708554    7.4688674487    8.7810640668
  H  -36.4992861885   10.0138354964   10.6338088269
  H  -37.4969956670    7.9205473755    9.5007967434
  H  -34.0569700746   10.4893652776   10.5221234800
  H  -35.9201339104    6.2301233390    8.6738850770
  H  -33.4280875262    6.7782021140    8.2985096651
  H  -32.6260467462    9.0425511401    9.2638540781
          12
FINAL HEAT OF FORMATION =      -849.6529117008  time =      12.0000000000
  C  -35.8973450638    9.3106541836   10.0517522273
  C  -36.4181004628    8.0986692588    9.5200374161
  C  -34.5301964049    9.6036290116    9.9495053656
  C  -35.5189995717    7.1798008678    8.9387095265
  C  -33.6849994191    8.6773026663    9.2818445476
  C  -34.1476083966    7.4709299526    8.7839428654
  H  -36.5115453816   10.0229703808   10.6395134982
  H  -37.5059975020    7.9111756445    9.5016623229
  H  -34.0575908688   10.4761732895   10.5063967612
  H  -35.9071128981    6.2303475922    8.6642734617
  H  -33.4383011017    6.7759406953    8.2965723063
  H  -32.6214955136    9.0448746978    9.2723170162
          12
FINAL HEAT OF FORMATION =      -849.6562375968  time =      12.5000000000
  C  -35.8953301711    9.3113731894   10.0506259242
  C  -36.4191988502    8.0962526675    9.5218831663
  C  -34.5284151985    9.6042224234    9.9493916523
  C  -35.5181662671    7.1817241098    8.9370930266
  C  -33.6850454829    8.6757714379    9.2808852229
  C  -34.1487112319    7.4729033907    8.7870948129
  H  -36.5231085100   10.0313080548   10.6438562343
  H  -37.5137151757    7.9019383969    9.5016818003
  H  -34.0606840717   10.4613464773   10.4891090392
  H  -35.8940336773    6.2276332802    8.6530815623
  H  -33.4481694185    6.7748721007    8.2943110341
  H  -32.6187136736    9.0446080650    9.2809225850
          12
FINAL HEAT OF FORMATION =      -849.6480443592  time =      13.0000000000
  C  -35.8934821704    9.3120446564   10.0501413806
  C  -36.4199385052    8.0941467233    9.5235600606
  C  -34.5271521910    9.6043271359    9.9489904470
  C  -35.5175249307    7.1837845794    8.9352032698
  C  -33.6856906766    8.6747313625    9.2802866293
  C  -34.1502076780    7.4749567583    8.7904663690
  H  -36.5350195101   10.0374402449   10.6475736435
  H  -37.5177808755    7.8935290641    9.5015191542
  H  -34.0651572097   10.4460549102   10.4710695679
  H  -35.8812949697    6.2222480152    8.6395516215
  H  -33.4596506057    6.7749842454    8.2919050183
  H  -32.6160498008    9.0425147370    9.2880488966
          12
FINAL HEAT OF FORMATION =      -849.6787196459  time =      13.5000000000
  C  -35.8915932812    9.3129077061   10.0497829390
  C  -36.4203874133    8.0925130304    9.5253286877
  C  -34.5256310711    9.6039912943    9.9484567730
  C  -35.5170640475    7.1862014628    8.9337825874
  C  -33.6864193912    8.6745727524    9.2802619639
  C  -34.1512312342    7.4766104743    8.7936870018
  H  -36.5462892022   10.0399836737   10.6494240766
  H  -37.5179672391    7.8867272321    9.5030219565
  H  -34.0705989256   10.4306865446   10.4524491033
  H  -35.8702194884    6.2141722084    8.6250836336
  H  -33.4710873024    6.7759240078    8.2898827455
  H  -32.6136917379    9.0382208275    9.2936735681
          12
FINAL HEAT OF FORMATION =      -849.7037883971  time =      14.0000000000
  C  -35.8898801413    9.3135858367   10.0493353783
  C  -36.4206615078    8.0910608828    9.5266883206
  C  -34.5248819106    9.6028414924    9.9477320794
  C  -35.5166984330    7.1885908214    8.9323721147
  C  -33.6866026985    8.6751726727    9.2806778502
  C  -34.1523582625    7.4780805773    8.7965711166
  H  -36.5555902711   10.0389793508   10.6470314183
  H  -37.5152764836    7.8804172100    9.5069426037
  H  -34.0748626908   10.4187692847   10.4354820629
  H  -35.8601851616    6.2042278551    8.6108813004
  H  -33.4835105187    6.7773335195    8.2880594253
  H  -32.6133678601    9.0304511068    9.2972595618
          12
FINAL HEAT OF FORMATION =      -849.7109469178  time =      14.5000000000
  C  -35.8884502792    9.3145594218   10.0490616343
  C  -36.4212068063    8.0897939703    9.5279437725
  C  -34.5242474154    9.6010354884    9.9466029442
  C  -35.5162800698    7.1912622740    8.9311825634
  C  -33.6869165045    8.6757475071    9.2810765068
  C  -34.1539064886    7.4793936502    8.7996995866
  H  -36.5637972112   10.0353793194   10.6421138206
  H  -37.5108787028    7.8751985540    9.5118843877
  H  -34.0773607868   10.4104700180   10.4223915095
  H  -35.8511192756    6.1944671417    8.5961647717
  H  -33.4959331822    6.7800805066    8.2872413810
  H  -32.6167271334    9.0212157465    9.2993141891
          12
FINAL HEAT OF FORMATION =      -849.6792305980  time =      15.0000000000
  C  -35.8870508234    9.3156664933   10.0486503829
  C  -36.4214039475    8.0891491780    9.5291183571
  C  -34.5240417572    9.5983048693    9.9453160928
  C  -35.5154933759    7.1943471017    8.9298073009
  C  -33.6866555749    8.6765285874    9.2815581157
  C  -34.1553195217    7.4806850861    8.8031504639
  H  -36.5698705838   10.0279322854   10.6366054312
  H  -37.5065190906    7.8694425756    9.5176600630
  H  -34.0782247014   10.4069093972   10.4110986534
  H  -35.8423443239    6.1860033608    8.5801565535
  H  -33.5064242647    6.7818964379    8.2882154186
  H  -32.6216767257    9.0100508137    9.2987872485
          12
FINAL HEAT OF FORMATION =      -849.6870881053  time =      15.5000000000
  C  -35.8860407836    9.3166223009   10.0483285577
  C  -36.4211021290    8.0888334775    9.5303843538
  C  -34.5245259363    9.5952054752    9.9436432289
  C  -35.5144940212    7.1971843725    8.9283206883
  C  -33.6861690538    8.6778076127    9.2818268505
  C  -34.1569108796    7.4819365773    8.8065715888
  H  -36.5746211728   10.0177578820   10.6303544444
  H  -37.5010194553    7.8642085747    9.5258079071
  H  -34.0770162160   10.4079756576   10.4017436316
  H  -35.8335197710    6.1800259719    8.5656603698
  H  -33.5148072673    6.7840393037    8.2896429210
  H  -32.6275876696    8.9962814208    9.2960689547
          12
FINAL HEAT OF FORMATION =      -849.6987814088  time =      16.0000000000
  C  -35.8855772300    9.3177337418   10.0486302987
  C  -36.4208998835    8.0889667769    9.5316093441
  C  -34.5252211089    9.5913684440    9.9414824182
  C  -35.5142442346    7.1997647493    8.9264618716
  C  -33.6855726592    8.6793984643    9.2826174882
  C  -34.1586615330    7.4831715374    8.8098299695
  H  -36.5782999645   10.0059754175   10.6233856283
  H  -37.4946340871    7.8593510140    9.5353002129
  H  -34.0732565250   10.4139610243   10.3968584626
  H  -35.8259968278    6.1760103841    8.5521776470
  H  -33.5238621054    6.7857739174    8.2923580198
  H  -32.6329216475    8.9824481332    9.2922714086
          12
FINAL HEAT OF FORMATION =      -849.7362067822  time =      16.5000000000
  C  -35.8854530498    9.3184867901   10.0492420796
  C  -36.4201820068    8.0895823016    9.5325899545
  C  -34.5255538519    9.5875124503    9.9389346211
  C  -35.5141934709    7.2015201787    8.9245943582
  C  -33.6848804198    8.6813400134    9.2839614187
  C  -34.1604341431    7.4846346675    8.8130611863
  H  -36.5812169502    9.9947822203   10.6140384957
  H  -37.4889163833    7.8541862379    9.5465806965
  H  -34.0684523675   10.4251541273   10.3943404324
  H  -35.8190175471    6.1738489124    8.5408001400
  H  -33.5313923847    6.7855905683    8.2952272006
  H  -32.6352377928    8.9691439566    9.2870849791
          12
FINAL HEAT OF FORMATION =      -849.7206012134  time =      17.0000000000
  C  -35.8860258269    9.3186051455   10.0496825788
  C  -36.4188167593    8.0903669926    9.5334941867
  C  -34.5256595928    9.5830194612    9.9361677796
  C  -35.5143971716    7.2023337035    8.9225179277
  C  -33.6842117948    8.6834191712    9.2859112656
  C  -34.1621306849    7.4864311589    8.8153434768
  H  -36.5824008675    9.9848277552   10.6031360639
  H  -37.4831271305    7.8486506947    9.5593298389
  H  -34.0634584442   10.4382469016   10.3937911439
  H  -35.8109011457    6.1750956927    8.5319357295
  H  -33.5374736273    6.7842097128    8.2970749722
  H  -32.6332376007    8.9552747194    9.2791549451
          12
FINAL HEAT OF FORMATION =      -849.7460157689  time =      17.5000000000
  C  -35.8868675218    9.3187624775   10.0498256509
  C  -36.4169479661    8.0916415118    9.5341693581
  C  -34.5258340555    9.5784737610    9.9337227295
  C  -35.5148662230    7.2026876765    8.9204928945
  C  -33.6839852870    8.6859719814    9.2883438169
  C  -34.1637794734    7.4884375526    8.8175297044
  H  -36.5825473748    9.9741030203   10.5920197058
  H  -37.4775792554    7.8426227709    9.5730762360
  H  -34.0594855147   10.4526303972   10.3935485024
  H  -35.8038725418    6.1783076609    8.5258534600
  H  -33.5417560156    6.7804025408    8.2987776252
  H  -32.6284941214    8.9400578141    9.2702298734
          12
FINAL HEAT OF FORMATION =      -849.7177000632  time =      18.0000000000
  C  -35.8873566984    9.3182789293   10.0499710542
  C  -36.4146062190    8.0925460343    9.5347918586
  C  -34.5263123533    9.5734391816    9.9314809041
  C  -35.5158398551    7.2027774029    8.9186352566
  C  -33.6838550963    8.6887905860    9.2906890673
  C  -34.1656057519    7.4902088639    8.8197633452
  H  -36.5829290862    9.9638420710   10.5812705457
  H  -37.4716774125    7.8386822978    9.5869972704
  H  -34.0561941793   10.4690356555   10.3920525235
  H  -35.7972762457    6.1844039757    8.5206514322
  H  -33.5428541173    6.7760294611    8.2990023347
  H  -32.6207165082    8.9250155550    9.2618333018
          12
FINAL HEAT OF FORMATION =      -849.7492606237  time =      18.5000000000
  C  -35.8877209865    9.3182468648   10.0499133135
  C  -36.4121458786    8.0936459678    9.5349460441
  C  -34.5268737088    9.5685961556    9.9294754546
  C  -35.5176511926    7.2023202971    8.9164305568
  C  -33.6838187349    8.6918880297    9.2929455357
  C  -34.1676183809    7.4923935481    8.8219290671
  H  -36.5823442963    9.9555724790   10.5710256653
  H  -37.4638004217    7.8350713617    9.6007910996
  H  -34.0544031830   10.4842504518   10.3893334319
  H  -35.7921538965    6.1925839430    8.5168539237
  H  -33.5417770337    6.7702802957    8.2990196056
  H  -32.6115453862    8.9108499412    9.2535810441
          12
FINAL HEAT OF FORMATION =      -849.7621385232  time =      19.0000000000
  C  -35.8879773795    9.3179924778   10.0500522235
  C  -36.4094263411    8.0946607026    9.5348727261
  C  -34.5272883420    9.5642054266    9.9276374609
  C  -35.5196350043    7.2012382079    8.9142768894
  C  -33.6838553982    8.6946686881    9.2951026745
  C  -34.1697930286    7.4943637887    8.8243928347
  H  -36.5812921292    9.9502555400   10.5636253292
  H  -37.4576919572    7.8305565012    9.6146185235
  H  -34.0549819250   10.4978400924   10.3860853007
  H  -35.7902389582    6.2030399115    8.5149093877
  H  -33.5390783530    6.7637417360    8.2979743496
  H  -32.6021176712    8.8971471208    9.2464866357
          12
FINAL HEAT OF FORMATION =      -849.7517593975  time =      19.5000000000
  C  -35.8885740877    9.3168148071   10.0498818349
  C  -36.4063188109    8.0956036834    9.5348492851
  C  -34.5277215701    9.5603695343    9.9258884881
  C  -35.5216769775    7.2005076947    8.9120825523
  C  -33.6836025501    8.6973709066    9.2972373871
  C  -34.1719735493    7.4965330636    8.8269193762
  H  -36.5816219120    9.9480202588   10.5586679283
  H  -37.4541993727    7.8272852976    9.6286441261
  H  -34.0584513919   10.5083518074   10.3797485003
  H  -35.7904739366    6.2137950273    8.5129860531
  H  -33.5347895716    6.7570470974    8.2981230698
  H  -32.5929501863    8.8842724671    9.2396826549
          12
FINAL HEAT OF FORMATION =      -849.7421342831  time =      20.0000000000
  C  -35.8896859213    9.3150788268   10.0494652822
  C  -36.4025692484    8.0971499701    9.5350379958
  C  -34.5282706473    9.5570653748    9.9239671119
  C  -35.5233504607    7.1999387637    8.9098672730
  C  -33.6829108698    8.6997580906    9.2990757381
  C  -34.1738603506    7.4986653774    8.8292518553
  H  -36.5825741922    9.9479343107   10.5559836129
  H  -37.4503887666    7.8257893861    9.6430500966
  H  -34.0638986424   10.5161931478   10.3713602137
  H  -35.7930447043    6.2244113372    8.5108993158
  H  -33.5298490955    6.7502042515    8.3000770461
  H  -32.5837975435    8.8715979810    9.2326986295
