          12
FINAL HEAT OF FORMATION =      -849.5111573712  time =       0.0000000000
  C  -35.8948664799    9.2886259308   10.0544203477
  C  -36.3696092323    8.1368720916    9.4874253256
  C  -34.5363309682    9.5695703477    9.9555021126
  C  -35.4923084434    7.1597227488    8.9838424098
  C  -33.7126430908    8.6974582688    9.3044121015
  C  -34.1833404232    7.4945484254    8.7620358687
  H  -36.5854647341    9.9399336196   10.5379614226
  H  -37.4508240693    8.0646070979    9.4360164204
  H  -34.0700572906   10.5024940235   10.5000652405
  H  -35.9507481749    6.2012351180    8.7652116130
  H  -33.4383733642    6.8263742785    8.2469555967
  H  -32.6549106837    8.8726068085    9.1230185816
          12
FINAL HEAT OF FORMATION =      -849.5853109533  time =       0.5000000000
  C  -35.8943642679    9.2884138217   10.0534320863
  C  -36.3700149668    8.1359588978    9.4886367496
  C  -34.5383725868    9.5693853851    9.9540350670
  C  -35.4928868814    7.1611624208    8.9833593192
  C  -33.7134460207    8.6987850404    9.3057065956
  C  -34.1796133468    7.4908942437    8.7599156525
  H  -36.5859431451    9.9488924459   10.5568751873
  H  -37.4577970191    8.0735557303    9.4383992465
  H  -34.0761405635   10.4963279436   10.4996969940
  H  -35.9642075623    6.2099826483    8.7669098843
  H  -33.4251316340    6.8261073990    8.2486161359
  H  -32.6538769429    8.8750071785    9.1209550068
          12
FINAL HEAT OF FORMATION =      -849.6139916668  time =       1.0000000000
  C  -35.8933509051    9.2883270197   10.0526892227
  C  -36.3701481978    8.1353270600    9.4899801618
  C  -34.5395231261    9.5698356923    9.9528807839
  C  -35.4936822299    7.1625759812    8.9829465050
  C  -33.7140516160    8.6996187433    9.3070136721
  C  -34.1755516296    7.4871996175    8.7581315689
  H  -36.5871627723    9.9610430619   10.5749370301
  H  -37.4654829801    8.0799618878    9.4404138139
  H  -34.0846614466   10.4875227445   10.4975420740
  H  -35.9766742437    6.2163302007    8.7661786951
  H  -33.4148806994    6.8269756135    8.2519929246
  H  -32.6501230510    8.8776924605    9.1200984185
          12
FINAL HEAT OF FORMATION =      -849.5988831973  time =       1.5000000000
  C  -35.8926120788    9.2880837723   10.0518181748
  C  -36.3702249065    8.1344343116    9.4911388675
  C  -34.5409095605    9.5712049672    9.9518668768
  C  -35.4948570848    7.1640425312    8.9826315955
  C  -33.7146390434    8.7001123034    9.3080815385
  C  -34.1715958948    7.4834777804    8.7565282479
  H  -36.5873930205    9.9740323047   10.5929265888
  H  -37.4735312391    8.0844477758    9.4417976666
  H  -34.0965304417   10.4755555637   10.4933486982
  H  -35.9863428600    6.2218815055    8.7646112189
  H  -33.4074838087    6.8274879303    8.2576202272
  H  -32.6444268796    8.8821922259    9.1196662525
          12
FINAL HEAT OF FORMATION =      -849.6048407268  time =       2.0000000000
  C  -35.8923900272    9.2877426203   10.0513831555
  C  -36.3705842264    8.1336465331    9.4921199319
  C  -34.5420442522    9.5730726645    9.9514905583
  C  -35.4961893945    7.1657013576    8.9822288746
  C  -33.7149216546    8.7004070265    9.3083752522
  C  -34.1677334723    7.4798763570    8.7546674666
  H  -36.5864266705    9.9864793911   10.6106580973
  H  -37.4797031141    8.0856560486    9.4429699657
  H  -34.1103655904   10.4587529325   10.4879461950
  H  -35.9944053277    6.2253684028    8.7645279719
  H  -33.4024568020    6.8272309419    8.2646125353
  H  -32.6388808092    8.8871733299    9.1211858534
          12
FINAL HEAT OF FORMATION =      -849.6137934430  time =       2.5000000000
  C  -35.8927493471    9.2875811282   10.0510642086
  C  -36.3713230527    8.1330071254    9.4931120989
  C  -34.5426499506    9.5753548324    9.9517216594
  C  -35.4975661144    7.1675226855    8.9816434658
  C  -33.7149155986    8.7005331922    9.3082188067
  C  -34.1640567604    7.4763387449    8.7528028519
  H  -36.5861399077    9.9986858605   10.6251162821
  H  -37.4851328678    8.0845959204    9.4445437759
  H  -34.1242860860   10.4404293135   10.4820636359
  H  -36.0016322641    6.2264056839    8.7641842983
  H  -33.3978125019    6.8275083483    8.2717660341
  H  -32.6350643871    8.8934284065    9.1244046241
          12
FINAL HEAT OF FORMATION =      -849.6300317969  time =       3.0000000000
  C  -35.8926282280    9.2875235966   10.0511197215
  C  -36.3723162290    8.1328582499    9.4943182429
  C  -34.5428617460    9.5779036368    9.9520684224
  C  -35.4987369320    7.1691769700    8.9806311123
  C  -33.7147096962    8.7004130824    9.3080189603
  C  -34.1603365863    7.4729194479    8.7512020670
  H  -36.5841760208   10.0095445031   10.6368982837
  H  -37.4901185760    8.0827194419    9.4480438484
  H  -34.1372273481   10.4234219167   10.4763873817
  H  -36.0076380642    6.2236182772    8.7641373414
  H  -33.3936323928    6.8282730260    8.2796344959
  H  -32.6320967158    8.8995317251    9.1274951705
          12
FINAL HEAT OF FORMATION =      -849.6156185162  time =       3.5000000000
  C  -35.8927493471    9.2877042659   10.0510591620
  C  -36.3736202775    8.1327669059    9.4958463617
  C  -34.5430228438    9.5808797882    9.9524688109
  C  -35.4997825933    7.1707828069    8.9790989562
  C  -33.7143887307    8.7002162640    9.3074668592
  C  -34.1567550055    7.4701489229    8.7499476050
  H  -36.5786400701   10.0176089760   10.6452737755
  H  -37.4936884667    8.0793329158    9.4520413854
  H  -34.1492829213   10.4080123708   10.4721059833
  H  -36.0145250436    6.2195059493    8.7634163585
  H  -33.3907298183    6.8300074536    8.2860382453
  H  -32.6299574175    8.9066891941    9.1302114476
          12
FINAL HEAT OF FORMATION =      -849.6232535388  time =       4.0000000000
  C  -35.8933791662    9.2879525600   10.0509541922
  C  -36.3754128396    8.1326230770    9.4975662523
  C  -34.5433486881    9.5835171338    9.9528339893
  C  -35.5011552759    7.1724042883    8.9776424995
  C  -33.7136458671    8.6992907125    9.3063404520
  C  -34.1535156586    7.4674377449    8.7493562923
  H  -36.5716443754   10.0217501122   10.6507255399
  H  -37.4958964812    8.0739893485    9.4559865237
  H  -34.1587204144   10.3959616132   10.4693991449
  H  -36.0200900993    6.2132774496    8.7621933111
  H  -33.3898638062    6.8312876643    8.2911786501
  H  -32.6288440472    8.9142256131    9.1336718650
          12
FINAL HEAT OF FORMATION =      -849.6113508109  time =       4.5000000000
  C  -35.8945217226    9.2884592414   10.0509804346
  C  -36.3773790057    8.1327270375    9.4991529120
  C  -34.5435087697    9.5857043100    9.9529441239
  C  -35.5023462800    7.1742695218    8.9756611936
  C  -33.7121581214    8.6978372838    9.3051898209
  C  -34.1507159581    7.4650225875    8.7492908172
  H  -36.5609489042   10.0219848438   10.6538579965
  H  -37.4977262497    8.0671941274    9.4588915847
  H  -34.1655192738   10.3897091728   10.4694655002
  H  -36.0230603087    6.2083311007    8.7590596477
  H  -33.3902351183    6.8320991070    8.2967025778
  H  -32.6279994347    8.9220032156    9.1393241134
          12
FINAL HEAT OF FORMATION =      -849.5902952386  time =       5.0000000000
  C  -35.8962133522    9.2888982980   10.0512337753
  C  -36.3800113266    8.1329617057    9.5006618536
  C  -34.5437372856    9.5879338287    9.9527012822
  C  -35.5034484635    7.1761292041    8.9740281049
  C  -33.7100526684    8.6958590058    9.3038413620
  C  -34.1477730404    7.4628002049    8.7498088922
  H  -36.5473872990   10.0204831262   10.6537023536
  H  -37.4974068059    8.0579303759    9.4629245926
  H  -34.1673823658   10.3902901972   10.4735832133
  H  -36.0240299295    6.2047104830    8.7557481460
  H  -33.3914888674    6.8314408892    8.3010616186
  H  -32.6317611792    8.9300971227    9.1459395396
          12
FINAL HEAT OF FORMATION =      -849.6147894297  time =       5.5000000000
  C  -35.8980180262    9.2891990770   10.0514386684
  C  -36.3826153864    8.1328955949    9.5023383433
  C  -34.5437398461    9.5897240939    9.9528094840
  C  -35.5042317001    7.1779697091    8.9726150492
  C  -33.7077554435    8.6940684623    9.3023697654
  C  -34.1449628367    7.4610151254    8.7502389402
  H  -36.5321676724   10.0177056926   10.6519238150
  H  -37.4963751207    8.0465845854    9.4664945467
  H  -34.1651241229   10.3959795232   10.4814255765
  H  -36.0228741443    6.2011702824    8.7509491524
  H  -33.3929828504    6.8298984408    8.3042852391
  H  -32.6370490290    8.9390944704    9.1533074619
          12
FINAL HEAT OF FORMATION =      -849.6092347438  time =       6.0000000000
  C  -35.8998509613    9.2897572340   10.0515305170
  C  -36.3852557819    8.1329506031    9.5042106421
  C  -34.5439115111    9.5911505712    9.9528491200
  C  -35.5051037573    7.1792591224    8.9712100681
  C  -33.7058599302    8.6921961635    9.3003884595
  C  -34.1425516933    7.4592622298    8.7512192178
  H  -36.5171777205   10.0138645707   10.6486619843
  H  -37.4957074182    8.0346891211    9.4696696173
  H  -34.1573808213   10.4074612698   10.4917740898
  H  -36.0208000751    6.1987060339    8.7463959389
  H  -33.3943916092    6.8274743393    8.3074673169
  H  -32.6428855251    8.9478610900    9.1619316658
          12
FINAL HEAT OF FORMATION =      -849.6073746751  time =       6.5000000000
  C  -35.9019907314    9.2902760273   10.0514083886
  C  -36.3879930727    8.1326563848    9.5063423376
  C  -34.5441910780    9.5924672034    9.9526674510
  C  -35.5063553209    7.1808452775    8.9691217736
  C  -33.7040895733    8.6902451373    9.2979983767
  C  -34.1406892096    7.4579283836    8.7524262677
  H  -36.5037274108   10.0076368763   10.6440899430
  H  -37.4948279194    8.0228279922    9.4728760479
  H  -34.1459872417   10.4229083854   10.5035777200
  H  -36.0171995311    6.1978037609    8.7404909299
  H  -33.3943808524    6.8239071450    8.3102719885
  H  -32.6480354759    8.9571441249    9.1709399538
          12
FINAL HEAT OF FORMATION =      -849.6299081610  time =       7.0000000000
  C  -35.9041143522    9.2906464497   10.0513680156
  C  -36.3906698039    8.1323005975    9.5083408021
  C  -34.5442258193    9.5934812069    9.9524400776
  C  -35.5073363853    7.1822997155    8.9668770337
  C  -33.7019780643    8.6879862669    9.2958081403
  C  -34.1390728685    7.4566935617    8.7537834724
  H  -36.4914427619    9.9999529556   10.6381099708
  H  -37.4919270945    8.0109216179    9.4763821593
  H  -34.1327705972   10.4404487442   10.5158524217
  H  -36.0127680426    6.1981946306    8.7349832486
  H  -33.3938680511    6.8186556145    8.3113245816
  H  -32.6542387138    8.9671766096    9.1799767389
          12
FINAL HEAT OF FORMATION =      -849.6528429323  time =       7.5000000000
  C  -35.9058826905    9.2913529776   10.0510026398
  C  -36.3928257232    8.1320240423    9.5104280872
  C  -34.5442655708    9.5939917268    9.9520444258
  C  -35.5082770767    7.1835038408    8.9646171539
  C  -33.7002379872    8.6858364035    9.2941528465
  C  -34.1376360404    7.4563924227    8.7556953177
  H  -36.4818723364    9.9922512575   10.6327501311
  H  -37.4879081391    8.0000329021    9.4790123145
  H  -34.1194759178   10.4593401147   10.5260906241
  H  -36.0055893747    6.1997582691    8.7296090206
  H  -33.3935581835    6.8125942427    8.3112474801
  H  -32.6599256936    8.9768722750    9.1887107934
          12
FINAL HEAT OF FORMATION =      -849.6181342986  time =       8.0000000000
  C  -35.9078205955    9.2921119904   10.0507492991
  C  -36.3949897170    8.1317424405    9.5126173142
  C  -34.5438384269    9.5940903388    9.9515377481
  C  -35.5093469617    7.1844904565    8.9618828911
  C  -33.6988875097    8.6836562604    9.2925490283
  C  -34.1368594817    7.4563697368    8.7578053305
  H  -36.4742486610    9.9857967651   10.6269174494
  H  -37.4831277336    7.9903672272    9.4806571262
  H  -34.1051689413   10.4777262667   10.5348332104
  H  -35.9960417670    6.2043829355    8.7232054550
  H  -33.3939047386    6.8058079980    8.3092711203
  H  -32.6660416862    8.9853204396    9.1968793239
          12
FINAL HEAT OF FORMATION =      -849.6252200458  time =       8.5000000000
  C  -35.9092942107    9.2927185950   10.0502294964
  C  -36.3971617855    8.1313154958    9.5149670240
  C  -34.5430300062    9.5944002082    9.9511588313
  C  -35.5101382729    7.1850329690    8.9592717661
  C  -33.6978075314    8.6816911037    9.2910491706
  C  -34.1362584156    7.4563392099    8.7601914285
  H  -36.4690343116    9.9816718993   10.6230369721
  H  -37.4765516436    7.9799343806    9.4826225106
  H  -34.0911263772   10.4934064781   10.5425082467
  H  -35.9847085179    6.2103990926    8.7169815998
  H  -33.3953267988    6.7978515991    8.3059938882
  H  -32.6708050511    8.9933704101    9.2061061238
          12
FINAL HEAT OF FORMATION =      -849.6279824111  time =       9.0000000000
  C  -35.9105901846    9.2931303998   10.0495350805
  C  -36.3991804365    8.1306387431    9.5173046218
  C  -34.5418350375    9.5950317053    9.9507041368
  C  -35.5111758595    7.1856774233    8.9568584688
  C  -33.6969415301    8.6799015696    9.2892061422
  C  -34.1358370108    7.4566688239    8.7625580413
  H  -36.4667460535    9.9794691961   10.6209697991
  H  -37.4712858237    7.9683784261    9.4850527607
  H  -34.0771354523   10.5030625053   10.5471403869
  H  -35.9718001889    6.2157371593    8.7107811089
  H  -33.3970789099    6.7912746835    8.3019523979
  H  -32.6719991604    9.0009046679    9.2154115591
          12
FINAL HEAT OF FORMATION =      -849.6406294023  time =       9.5000000000
  C  -35.9114339808    9.2933554794   10.0490697814
  C  -36.4010618193    8.1299160660    9.5198693180
  C  -34.5407156083    9.5960687757    9.9501397599
  C  -35.5121932596    7.1862471876    8.9541948588
  C  -33.6963561213    8.6782664623    9.2876911447
  C  -34.1357027072    7.4572176660    8.7648593311
  H  -36.4664660755    9.9797367985   10.6198210635
  H  -37.4692608347    7.9567466462    9.4882169536
  H  -34.0648446617   10.5073121351   10.5477706811
  H  -35.9584738068    6.2217986161    8.7047690565
  H  -33.3982886091    6.7851445188    8.2987240944
  H  -32.6680125418    9.0088838286    9.2249089702
          12
FINAL HEAT OF FORMATION =      -849.6455498531  time =      10.0000000000
  C  -35.9122212546    9.2932353696   10.0482350692
  C  -36.4027736353    8.1289657861    9.5217244582
  C  -34.5396236214    9.5972241131    9.9497374371
  C  -35.5132712193    7.1867579063    8.9512052366
  C  -33.6961522375    8.6767343062    9.2868443206
  C  -34.1358332395    7.4579156436    8.7673302990
  H  -36.4684493570    9.9839862253   10.6201306519
  H  -37.4698287706    7.9457123695    9.4897554367
  H  -34.0553200932   10.5069718578   10.5448412585
  H  -35.9458864490    6.2284822383    8.6978654206
  H  -33.4007020411    6.7791875169    8.2975279963
  H  -32.6615473367    9.0168334788    9.2351869369
          12
FINAL HEAT OF FORMATION =      -849.6386928174  time =      10.5000000000
  C  -35.9123464110    9.2930112994   10.0479050198
  C  -36.4041180569    8.1280498232    9.5240711400
  C  -34.5383433582    9.5985912722    9.9494169922
  C  -35.5139091130    7.1866388059    8.9487233052
  C  -33.6959907455    8.6753384090    9.2856946988
  C  -34.1364623703    7.4586598403    8.7698050090
  H  -36.4728195339    9.9903107419   10.6215928125
  H  -37.4711014802    7.9349104931    9.4925914030
  H  -34.0495517855   10.5025343435   10.5381144746
  H  -35.9315596858    6.2329561913    8.6909049556
  H  -33.4055417533    6.7745861434    8.2967561644
  H  -32.6535550581    9.0249900363    9.2451509863
          12
FINAL HEAT OF FORMATION =      -849.6593429658  time =      11.0000000000
  C  -35.9123342991    9.2930526817   10.0469724030
  C  -36.4054745904    8.1272065317    9.5264036913
  C  -34.5373695357    9.5998813470    9.9493678854
  C  -35.5143774400    7.1867972700    8.9461000683
  C  -33.6958817383    8.6744128575    9.2847418955
  C  -34.1370317294    7.4599391163    8.7719045616
  H  -36.4806805797    9.9981575003   10.6243654952
  H  -37.4739812011    7.9244520796    9.4948927939
  H  -34.0470970556   10.4936015843   10.5283033009
  H  -35.9188905892    6.2367089172    8.6829861782
  H  -33.4119629877    6.7722740688    8.2945268052
  H  -32.6450050618    9.0326600763    9.2553556845
          12
FINAL HEAT OF FORMATION =      -849.6559345182  time =      11.5000000000
  C  -35.9118296364    9.2930072621   10.0458177347
  C  -36.4067423032    8.1261967015    9.5291056556
  C  -34.5359736869    9.6006154319    9.9494157367
  C  -35.5144985591    7.1872312799    8.9438957014
  C  -33.6954235045    8.6738294674    9.2838839689
  C  -34.1379034972    7.4608597586    8.7743939328
  H  -36.4909920077   10.0070324588   10.6285726322
  H  -37.4803012750    7.9139307580    9.4968233859
  H  -34.0466526747   10.4819990666   10.5157452690
  H  -35.9080250639    6.2371901648    8.6748747713
  H  -33.4196184672    6.7704322065    8.2919103931
  H  -32.6363221613    9.0368547229    9.2647787301
          12
FINAL HEAT OF FORMATION =      -849.6681243333  time =      12.0000000000
  C  -35.9109818029    9.2929194508   10.0445924135
  C  -36.4076547334    8.1251767781    9.5316844823
  C  -34.5343908859    9.6013392935    9.9492649789
  C  -35.5143814773    7.1882234469    8.9420213839
  C  -33.6947977227    8.6739011295    9.2832985601
  C  -34.1390161598    7.4619237524    8.7767316917
  H  -36.5029640076   10.0155374698   10.6335782226
  H  -37.4876676697    7.9046981441    9.4977704855
  H  -34.0482933946   10.4683965524   10.4999327274
  H  -35.8973032630    6.2350932720    8.6651051705
  H  -33.4293055850    6.7678467581    8.2896689918
  H  -32.6286670520    9.0399198991    9.2730748638
          12
FINAL HEAT OF FORMATION =      -849.6721704729  time =      12.5000000000
  C  -35.9096454560    9.2928265928   10.0431420128
  C  -36.4081190232    8.1241346495    9.5341613671
  C  -34.5327941199    9.6013449960    9.9488835935
  C  -35.5141473138    7.1895931016    8.9402520363
  C  -33.6938731806    8.6740848267    9.2830058557
  C  -34.1403234682    7.4629059891    8.7793745650
  H  -36.5147102222   10.0236446261   10.6375207264
  H  -37.4941908742    7.8957016490    9.4979629670
  H  -34.0526772757   10.4532584171   10.4826794900
  H  -35.8867200014    6.2304046333    8.6539406355
  H  -33.4387117828    6.7665342107    8.2871643945
  H  -32.6228714206    9.0404286548    9.2815621415
          12
FINAL HEAT OF FORMATION =      -849.6631508985  time =      13.0000000000
  C  -35.9084019669    9.2927357535   10.0423486829
  C  -36.4082320676    8.1232964047    9.5364222562
  C  -34.5316782399    9.6008155550    9.9481833470
  C  -35.5139979336    7.1910576329    8.9381677791
  C  -33.6934936742    8.6747711681    9.2830684339
  C  -34.1421525822    7.4640008974    8.7822760854
  H  -36.5272780201   10.0299176296   10.6411185653
  H  -37.4975258036    7.8876512432    9.4980719124
  H  -34.0586968784   10.4377758358   10.4648008760
  H  -35.8766057834    6.2235634975    8.6406740427
  H  -33.4497985499    6.7664877889    8.2845725215
  H  -32.6174198542    9.0391182860    9.2886297900
          12
FINAL HEAT OF FORMATION =      -849.6795799513  time =      13.5000000000
  C  -35.9070252470    9.2929356000   10.0417239104
  C  -36.4080826875    8.1227705461    9.5387003038
  C  -34.5302658603    9.5998061793    9.9473228347
  C  -35.5137678074    7.1929566788    8.9365367091
  C  -33.6933019023    8.6762013823    9.2836558613
  C  -34.1436334528    7.4647501291    8.7850785254
  H  -36.5396513659   10.0329180033   10.6430970678
  H  -37.4974349612    7.8813359850    9.4999559059
  H  -34.0659219476   10.4223503989   10.4464756137
  H  -35.8682361846    6.2146592340    8.6267407748
  H  -33.4609102194    6.7673521323    8.2824223650
  H  -32.6126143965    9.0355951345    9.2942630374
          12
FINAL HEAT OF FORMATION =      -849.7078551844  time =      14.0000000000
  C  -35.9057333103    9.2930567190   10.0410527090
  C  -36.4078000763    8.1222663880    9.5404979126
  C  -34.5295827551    9.5979502090    9.9462471612
  C  -35.5131379883    7.1950939256    8.9349429842
  C  -33.6929022094    8.6780322987    9.2845763662
  C  -34.1453380141    7.4653903721    8.7876038959
  H  -36.5504481416   10.0326268325   10.6410352748
  H  -37.4948846224    7.8756522883    9.5043721889
  H  -34.0721794056   10.4105170680   10.4299395287
  H  -35.8609647877    6.2045625855    8.6133581584
  H  -33.4730817038    6.7687628137    8.2805241310
  H  -32.6102800352    9.0285588931    9.2979291422
          12
FINAL HEAT OF FORMATION =      -849.7119197199  time =      14.5000000000
  C  -35.9047360967    9.2933574980   10.0405086825
  C  -36.4077354795    8.1220049727    9.5422087193
  C  -34.5289752336    9.5954160488    9.9447487333
  C  -35.5125041319    7.1973331142    8.9334956114
  C  -33.6924237891    8.6799086349    9.2854696192
  C  -34.1475711160    7.4659674372    8.7904409890
  H  -36.5604813853   10.0299251318   10.6365936097
  H  -37.4909808321    7.8711939494    9.5099131032
  H  -34.0768737249   10.4024445549   10.4174093598
  H  -35.8546854304    6.1953256360    8.5997431485
  H  -33.4853173725    6.7715835904    8.2796811931
  H  -32.6121670009    9.0200019161    9.3001411717
          12
FINAL HEAT OF FORMATION =      -849.6815990921  time =      15.0000000000
  C  -35.9036500625    9.2940075037   10.0399212551
  C  -36.4074205699    8.1220958120    9.5437247262
  C  -34.5287541589    9.5919457877    9.9430758736
  C  -35.5114019484    7.1999432300    8.9318251777
  C  -33.6913256430    8.6819060900    9.2863921427
  C  -34.1497658646    7.4666337351    8.7936713909
  H  -36.5686201726   10.0234871803   10.6316436130
  H  -37.4873767272    7.8663357479    9.5163902563
  H  -34.0801281128   10.3992453579   10.4067897733
  H  -35.8487145486    6.1879894336    8.5850942324
  H  -33.4956849649    6.7735393599    8.2806727734
  H  -32.6162429503    9.0094437008    9.2998418235
          12
FINAL HEAT OF FORMATION =      -849.6833420324  time =      15.5000000000
  C  -35.9028062664    9.2947897309   10.0395528513
  C  -36.4067503778    8.1221795860    9.5451842109
  C  -34.5291808286    9.5881063361    9.9410083829
  C  -35.5098516245    7.2023893303    8.9300396809
  C  -33.6901063778    8.6841811097    9.2870128779
  C  -34.1522201446    7.4673865777    8.7969486230
  H  -36.5755774719   10.0143520753   10.6259686429
  H  -37.4827895894    7.8621367562    9.5253294265
  H  -34.0815070353   10.4007887792   10.3982092662
  H  -35.8427046125    6.1836266332    8.5721646550
  H  -33.5040027334    6.7758851777    8.2821560230
  H  -32.6219050651    8.9962020748    9.2974214035
          12
FINAL HEAT OF FORMATION =      -849.6934491458  time =      16.0000000000
  C  -35.9024792449    9.2957748326   10.0398324344
  C  -36.4062255285    8.1226166240    9.5465639588
  C  -34.5297758145    9.5835393867    9.9384548121
  C  -35.5085677624    7.2048843830    8.9279332185
  C  -33.6891414626    8.6863188611    9.2880100915
  C  -34.1548976687    7.4682627303    8.8001392742
  H  -36.5814930309   10.0035611358   10.6195330993
  H  -37.4773722778    7.8584458528    9.5356890195
  H  -34.0805277252   10.4073372628   10.3941901275
  H  -35.8380029177    6.1815857531    8.5603846594
  H  -33.5130496320    6.7778839348    8.2849593310
  H  -32.6276096739    8.9828074053    9.2939951562
          12
FINAL HEAT OF FORMATION =      -849.7337414231  time =      16.5000000000
  C  -35.9023500512    9.2967306639   10.0405752980
  C  -36.4053615459    8.1231611551    9.5475329113
  C  -34.5299688437    9.5789764709    9.9355225086
  C  -35.5070618488    7.2068374278    8.9258711665
  C  -33.6884127296    8.6883809131    9.2894160819
  C  -34.1576357134    7.4695118355    8.8033833022
  H  -36.5865614616    9.9932340419   10.6106067449
  H  -37.4725703849    7.8545667946    9.5478945482
  H  -34.0786879432   10.4191513254   10.3926050578
  H  -35.8338295366    6.1816316027    8.5507925446
  H  -33.5206226555    6.7780231774    8.2879503736
  H  -32.6308912692    8.9698541527    9.2892438550
          12
FINAL HEAT OF FORMATION =      -849.7130926524  time =      17.0000000000
  C  -35.9027214830    9.2975522548   10.0413645906
  C  -36.4040978704    8.1233347591    9.5481980568
  C  -34.5298997820    9.5738124140    9.9323859525
  C  -35.5054388534    7.2081182619    8.9236577157
  C  -33.6880211113    8.6901654006    9.2912893901
  C  -34.1603101209    7.4712418516    8.8057533686
  H  -36.5896946015    9.9839552466   10.5999498320
  H  -37.4675611071    7.8504188677    9.5616016753
  H  -34.0768121368   10.4328908778   10.3930308815
  H  -35.8284772141    6.1852061735    8.5437371801
  H  -33.5267959422    6.7770189917    8.2899520266
  H  -32.6303955918    8.9562463611    9.2818084372
          12
FINAL HEAT OF FORMATION =      -849.7434611221  time =      17.5000000000
  C  -35.9032745934    9.2986917833   10.0419833071
  C  -36.4024829496    8.1236834810    9.5485028731
  C  -34.5298734474    9.5686470570    9.9295900650
  C  -35.5039127532    7.2090740931    8.9215351042
  C  -33.6882189391    8.6921446879    9.2935331207
  C  -34.1629164872    7.4733268380    8.8080988601
  H  -36.5914845828    9.9736650182   10.5888545674
  H  -37.4626077471    7.8458461897    9.5763185978
  H  -34.0760635721   10.4479217415   10.3937711352
  H  -35.8241346485    6.1907616839    8.5394416534
  H  -33.5312175775    6.7736371512    8.2918416447
  H  -32.6276138478    8.9412149511    9.2734225151
          12
FINAL HEAT OF FORMATION =      -849.7154999321  time =      18.0000000000
  C  -35.9034683839    9.2992852667   10.0426585458
  C  -36.4004642986    8.1235376335    9.5487027196
  C  -34.5301328673    9.5630547509    9.9270274155
  C  -35.5027177118    7.2099395897    8.9196325256
  C  -33.6887054340    8.6940735090    9.2955689302
  C  -34.1656521865    7.4753168306    8.8105514727
  H  -36.5931129890    9.9635701373   10.5778790923
  H  -37.4570996339    7.8433960848    9.5911954387
  H  -34.0760322734   10.4649445216   10.3932454366
  H  -35.8201164897    6.1991303036    8.5359512975
  H  -33.5325110434    6.7697300423    8.2922763625
  H  -32.6221378267    8.9262915984    9.2655969094
          12
FINAL HEAT OF FORMATION =      -849.7429827643  time =      18.5000000000
  C  -35.9036419879    9.3001795291   10.0430804439
  C  -36.3982922301    8.1237112375    9.5484857146
  C  -34.5304692281    9.5577273539    9.9247379390
  C  -35.5020192586    7.2106052399    8.9174897276
  C  -33.6896945730    8.6957984462    9.2973534177
  C  -34.1684882249    7.4778515515    8.8129881031
  H  -36.5933254501    9.9551947222   10.5671500348
  H  -37.4494271385    7.8412643311    9.6059053791
  H  -34.0774627551   10.4807229360   10.3914538225
  H  -35.8174342238    6.2094290472    8.5337455529
  H  -33.5316868994    6.7644805957    8.2925277604
  H  -32.6154753771    8.9121971956    9.2579329398
          12
FINAL HEAT OF FORMATION =      -849.7532111585  time =      19.0000000000
  C  -35.9037509950    9.3008436653   10.0437092537
  C  -36.3958859981    8.1237763390    9.5480315181
  C  -34.5306663775    9.5529324320    9.9226635238
  C  -35.5015226704    7.2107324149    8.9154407968
  C  -33.6908452040    8.6969985343    9.2989542079
  C  -34.1713611959    7.4802932051    8.8157597152
  H  -36.5926045517    9.9495160912   10.5590229962
  H  -37.4433528729    7.8381658717    9.6205742780
  H  -34.0811490176   10.4947923090   10.3890741349
  H  -35.8177881781    6.2218020068    8.5332379811
  H  -33.5292974714    6.7584710501    8.2917330300
  H  -32.6086448209    8.8985274415    9.2514351760
          12
FINAL HEAT OF FORMATION =      -849.7399127903  time =      19.5000000000
  C  -35.9040376435    9.3010525957   10.0442361216
  C  -36.3933101994    8.1232731902    9.5474188575
  C  -34.5309017746    9.5487800226    9.9207273314
  C  -35.5012319847    7.2112305171    8.9133878287
  C  -33.6917212986    8.6979937292    9.3004681962
  C  -34.1740822878    7.4830384128    8.8186183096
  H  -36.5928244354    9.9467182093   10.5531370724
  H  -37.4397627449    7.8361980037    9.6353503195
  H  -34.0875343388   10.5056799550   10.3835166068
  H  -35.8200969421    6.2342484689    8.5325903941
  H  -33.5253770948    6.7523189001    8.2921424771
  H  -32.6020450418    8.8856528252    9.2452116917
          12
FINAL HEAT OF FORMATION =      -849.7341667230  time =      20.0000000000
  C  -35.9045867165    9.3013695239   10.0448003346
  C  -36.3903750808    8.1226812208    9.5467264602
  C  -34.5312846987    9.5452517460    9.9186723003
  C  -35.5008524783    7.2118260191    8.9113328420
  C  -33.6920765812    8.6986376789    9.3016531443
  C  -34.1763265759    7.4858330113    8.8212953487
  H  -36.5933079531    9.9459702594   10.5493985777
  H  -37.4357998179    7.8358402533    9.6503981595
  H  -34.0956274695   10.5137818948   10.3757999156
  H  -35.8245201681    6.2463376620    8.5316160524
  H  -33.5208670214    6.7460095880    8.2943599740
  H  -32.5953151787    8.8729424565    9.2387746909
