          12
FINAL HEAT OF FORMATION =      -849.8926731779  time =       0.0000000000
  C  -35.8881860910    9.3145618886   10.0628388693
  C  -36.4047260736    8.1157279051    9.5337726473
  C  -34.5152130199    9.6040151640    9.9411104735
  C  -35.5423631950    7.1913199598    8.9127848347
  C  -33.6509997801    8.6739556313    9.3309983687
  C  -34.1682179398    7.4778652320    8.7966777141
  H  -36.5555003175   10.0237876247   10.5693617923
  H  -37.4789192354    7.9018163980    9.6057482196
  H  -34.1185835890   10.5540753761   10.3215545871
  H  -35.9412771152    6.2477117866    8.5183349247
  H  -33.5008553696    6.7680739276    8.2908992385
  H  -32.5746352286    8.8811378654    9.2727853709
